306 Power Project -kimi k3-v4/Phase6/results/grid_external_ll/fault_summary.csv
Fault_location,Fault_branch_sensor,Phase,Fault_enabled,Initial_window_start_s,Initial_window_end_exclusive_s,Initial_samples,Pre_event_current_RMS_A,Initial_current_waveform_RMS_A,Initial_peak_abs_current_A,Initial_phase_voltage_waveform_RMS_V,Full_window_fundamental_current_RMS_A,Fundamental_window_start_s,Fundamental_window_end_exclusive_s,Fundamental_samples,Initial_window_status,Fundamental_window_status
GRID230,faultGRID,A,1,0.15,0.17,100,0.000132634129942068,0.000198696650109346,0.000282456699450713,132464.656884944,0.000198203315810611,0.171,0.21,39,full_initial_cycle_measured,full_post_fault_DFT_windows_measured
GRID230,faultGRID,B,1,0.15,0.17,100,0.00013263412365358,45708.3628851076,66433.8874270337,68676.8278379685,45569.1566449052,0.171,0.21,39,full_initial_cycle_measured,full_post_fault_DFT_windows_measured
GRID230,faultGRID,C,1,0.15,0.17,100,0.000132634124892975,45708.2965122365,66433.7929985792,67712.2548165238,45569.090379698,0.171,0.21,39,full_initial_cycle_measured,full_post_fault_DFT_windows_measured
